  Page 1                                    Wed Apr 15 07:17:27 2020

  ******************************************************************
  *                           E P A N E T                          *
  *                   Hydraulic and Water Quality                  *
  *                   Analysis for Pipe Networks                   *
  *                         Version 2.00.12                        *
  ******************************************************************
  
  Analysis begun Wed Apr 15 07:17:27 2020

  Analysis ended Wed Apr 15 07:17:27 2020
